mol-732
     RDKit          3D

 26 29  0  0  0  0  0  0  0  0999 V2000
    3.2400    0.6400    0.0200 C   0  0  0  0  0  0  0  0  0  0  0  0
    2.0200    0.0800   -0.2400 C   0  0  0  0  0  0  0  0  0  0  0  0
    4.1400   -0.3200    0.1600 N   0  0  0  0  0  0  0  0  0  0  0  0
    3.1800    2.0400    0.0800 C   0  0  0  0  0  0  0  0  0  0  0  0
    2.2000   -1.2800   -0.2800 C   0  0  0  0  0  0  0  0  0  0  0  0
    0.7000    1.1800   -0.4200 S   0  0  0  0  0  0  0  0  0  0  0  0
    3.5200   -1.5200   -0.0400 C   0  0  0  0  0  0  0  0  0  0  0  0
    5.4600   -0.5200    0.4000 C   0  0  0  0  0  0  0  0  0  0  0  0
    1.8600    2.4600   -0.1400 C   0  0  0  0  0  0  0  0  0  0  0  0
    4.3200    2.9200    0.3400 C   0  0  0  0  0  0  0  0  0  0  0  0
    1.2000   -2.1400   -0.5200 N   0  0  0  0  0  0  0  0  0  0  0  0
    4.4600   -2.5200    0.1000 C   0  0  0  0  0  0  0  0  0  0  0  0
    5.6600   -1.9000    0.3400 C   0  0  0  0  0  0  0  0  0  0  0  0
    0.0400   -1.8800   -0.7200 O   0  0  0  0  0  0  0  0  0  0  0  0
   -0.9200   -2.7800   -0.9400 C   0  0  0  0  0  0  0  0  0  0  0  0
   -1.0400   -3.7000    0.2200 C   0  0  0  0  0  0  0  0  0  0  0  0
   -2.2800   -2.0600   -1.2400 C   0  0  0  0  0  0  0  0  0  0  0  0
   -0.7200   -3.2400    1.5400 C   0  0  0  0  0  0  0  0  0  0  0  0
   -1.4600   -5.0400    0.0800 C   0  0  0  0  0  0  0  0  0  0  0  0
   -2.7400   -1.1000   -0.1200 C   0  0  0  0  0  0  0  0  0  0  0  0
   -0.8200   -4.1000    2.6400 C   0  0  0  0  0  0  0  0  0  0  0  0
   -1.5600   -5.9000    1.2000 C   0  0  0  0  0  0  0  0  0  0  0  0
   -3.9400   -0.3000   -0.5200 N   0  0  0  0  0  0  0  0  0  0  0  0
   -1.2200   -5.4200    2.5000 C   0  0  0  0  0  0  0  0  0  0  0  0
   -5.1200   -1.1600   -0.7800 C   0  0  0  0  0  0  0  0  0  0  0  0
   -3.7800    0.4800   -1.7400 C   0  0  0  0  0  0  0  0  0  0  0  0
  2  6  1  0
  3  7  1  0
  3  8  1  0
  4  9  2  0
  4 10  1  0
  5 11  2  0
  7 12  2  0
  8 13  2  0
 11 14  1  0
 14 15  1  0
 15 16  1  0
 15 17  1  0
 16 18  2  0
 16 19  1  0
 17 20  1  0
 18 21  1  0
 19 22  2  0
 20 23  1  0
 21 24  2  0
 23 25  1  0
 23 26  1  0
  5  7  1  0
  6  9  1  0
 12 13  1  0
 22 24  1  0
  1  2  2  0
  1  3  1  0
  1  4  1  0
  2  5  1  0
M  END

